638026
  -OEChem-08302613363D

 53 55  0     1  0  0  0  0  0999 V2000
   -0.5735    1.9837   -0.5804 O   0  0  0  0  0  0  0  0  0  0  0  0
   -0.4342   -2.7196    0.6792 O   0  0  0  0  0  0  0  0  0  0  0  0
   -2.7637    0.9405   -0.2066 C   0  0  2  0  0  0  0  0  0  0  0  0
   -2.1207   -0.3404    0.3635 C   0  0  1  0  0  0  0  0  0  0  0  0
   -1.8605    2.1746    0.0449 C   0  0  0  0  0  0  0  0  0  0  0  0
   -4.2066    1.0778    0.3141 C   0  0  0  0  0  0  0  0  0  0  0  0
   -2.9268   -1.5727   -0.1107 C   0  0  0  0  0  0  0  0  0  0  0  0
   -0.6514   -0.3934    0.0038 C   0  0  0  0  0  0  0  0  0  0  0  0
   -4.4229   -1.4007   -0.0026 C   0  0  0  0  0  0  0  0  0  0  0  0
    0.0173    0.7568   -0.4375 C   0  0  0  0  0  0  0  0  0  0  0  0
   -1.5507    2.3223    1.5447 C   0  0  0  0  0  0  0  0  0  0  0  0
   -2.4431    3.5141   -0.4387 C   0  0  0  0  0  0  0  0  0  0  0  0
   -4.9867   -0.2004    0.2119 C   0  0  0  0  0  0  0  0  0  0  0  0
    0.0900   -1.5776    0.1497 C   0  0  0  0  0  0  0  0  0  0  0  0
    1.3730    0.7058   -0.7818 C   0  0  0  0  0  0  0  0  0  0  0  0
   -5.2462   -2.6469   -0.1454 C   0  0  0  0  0  0  0  0  0  0  0  0
    2.0855   -0.4836   -0.6556 C   0  0  0  0  0  0  0  0  0  0  0  0
    1.4456   -1.6239   -0.1824 C   0  0  0  0  0  0  0  0  0  0  0  0
    3.5320   -0.5303   -1.0131 C   0  0  0  0  0  0  0  0  0  0  0  0
    4.4860   -0.1939    0.1479 C   0  0  0  0  0  0  0  0  0  0  0  0
    5.9581   -0.1880   -0.2757 C   0  0  0  0  0  0  0  0  0  0  0  0
    6.8700    0.1751    0.8968 C   0  0  0  0  0  0  0  0  0  0  0  0
    8.3297    0.2205    0.4738 C   0  0  0  0  0  0  0  0  0  0  0  0
   -2.8197    0.8193   -1.3011 H   0  0  0  0  0  0  0  0  0  0  0  0
   -2.1825   -0.3187    1.4610 H   0  0  0  0  0  0  0  0  0  0  0  0
   -4.7284    1.8442   -0.2708 H   0  0  0  0  0  0  0  0  0  0  0  0
   -4.2263    1.4013    1.3598 H   0  0  0  0  0  0  0  0  0  0  0  0
   -2.6741   -2.4413    0.5047 H   0  0  0  0  0  0  0  0  0  0  0  0
   -2.6762   -1.8202   -1.1503 H   0  0  0  0  0  0  0  0  0  0  0  0
   -0.8853    3.1810    1.7053 H   0  0  0  0  0  0  0  0  0  0  0  0
   -2.4547    2.5029    2.1345 H   0  0  0  0  0  0  0  0  0  0  0  0
   -1.0205    1.4755    1.9887 H   0  0  0  0  0  0  0  0  0  0  0  0
   -3.3525    3.7894    0.1039 H   0  0  0  0  0  0  0  0  0  0  0  0
   -1.7122    4.3230   -0.3257 H   0  0  0  0  0  0  0  0  0  0  0  0
   -2.6786    3.4576   -1.5073 H   0  0  0  0  0  0  0  0  0  0  0  0
   -6.0661   -0.1183    0.3085 H   0  0  0  0  0  0  0  0  0  0  0  0
    1.8719    1.6053   -1.1364 H   0  0  0  0  0  0  0  0  0  0  0  0
   -5.0572   -3.1159   -1.1164 H   0  0  0  0  0  0  0  0  0  0  0  0
   -6.3199   -2.4431   -0.0774 H   0  0  0  0  0  0  0  0  0  0  0  0
   -4.9923   -3.3633    0.6425 H   0  0  0  0  0  0  0  0  0  0  0  0
    2.0105   -2.5455   -0.0609 H   0  0  0  0  0  0  0  0  0  0  0  0
    3.7797   -1.5252   -1.4067 H   0  0  0  0  0  0  0  0  0  0  0  0
    3.7195    0.1604   -1.8462 H   0  0  0  0  0  0  0  0  0  0  0  0
    4.3409   -0.9186    0.9591 H   0  0  0  0  0  0  0  0  0  0  0  0
    4.2236    0.7900    0.5577 H   0  0  0  0  0  0  0  0  0  0  0  0
    0.2428   -3.4171    0.7013 H   0  0  0  0  0  0  0  0  0  0  0  0
    6.2318   -1.1756   -0.6660 H   0  0  0  0  0  0  0  0  0  0  0  0
    6.1002    0.5331   -1.0898 H   0  0  0  0  0  0  0  0  0  0  0  0
    6.7500   -0.5584    1.7026 H   0  0  0  0  0  0  0  0  0  0  0  0
    6.5845    1.1527    1.3026 H   0  0  0  0  0  0  0  0  0  0  0  0
    8.4885    0.9700   -0.3081 H   0  0  0  0  0  0  0  0  0  0  0  0
    8.9638    0.4803    1.3272 H   0  0  0  0  0  0  0  0  0  0  0  0
    8.6572   -0.7511    0.0903 H   0  0  0  0  0  0  0  0  0  0  0  0
  1  5  1  0  0  0  0
  1 10  1  0  0  0  0
  2 14  1  0  0  0  0
  2 46  1  0  0  0  0
  3  4  1  0  0  0  0
  3  5  1  0  0  0  0
  3  6  1  0  0  0  0
  3 24  1  0  0  0  0
  4  7  1  0  0  0  0
  4  8  1  0  0  0  0
  4 25  1  0  0  0  0
  5 11  1  0  0  0  0
  5 12  1  0  0  0  0
  6 13  1  0  0  0  0
  6 26  1  0  0  0  0
  6 27  1  0  0  0  0
  7  9  1  0  0  0  0
  7 28  1  0  0  0  0
  7 29  1  0  0  0  0
  8 10  1  0  0  0  0
  8 14  2  0  0  0  0
  9 13  2  0  0  0  0
  9 16  1  0  0  0  0
 10 15  2  0  0  0  0
 11 30  1  0  0  0  0
 11 31  1  0  0  0  0
 11 32  1  0  0  0  0
 12 33  1  0  0  0  0
 12 34  1  0  0  0  0
 12 35  1  0  0  0  0
 13 36  1  0  0  0  0
 14 18  1  0  0  0  0
 15 17  1  0  0  0  0
 15 37  1  0  0  0  0
 16 38  1  0  0  0  0
 16 39  1  0  0  0  0
 16 40  1  0  0  0  0
 17 18  2  0  0  0  0
 17 19  1  0  0  0  0
 18 41  1  0  0  0  0
 19 20  1  0  0  0  0
 19 42  1  0  0  0  0
 19 43  1  0  0  0  0
 20 21  1  0  0  0  0
 20 44  1  0  0  0  0
 20 45  1  0  0  0  0
 21 22  1  0  0  0  0
 21 47  1  0  0  0  0
 21 48  1  0  0  0  0
 22 23  1  0  0  0  0
 22 49  1  0  0  0  0
 22 50  1  0  0  0  0
 23 51  1  0  0  0  0
 23 52  1  0  0  0  0
 23 53  1  0  0  0  0
M  END
> <PUBCHEM_COMPOUND_CID>
638026

> <PUBCHEM_CONFORMER_RMSD>
0.8

> <PUBCHEM_CONFORMER_DIVERSEORDER>
1
10
9
3
7
4
8
6
5
2

> <PUBCHEM_MMFF94_PARTIAL_CHARGES>
20
1 -0.36
10 0.08
13 -0.29
14 0.08
15 -0.15
16 0.14
17 -0.14
18 -0.15
19 0.14
2 -0.53
36 0.15
37 0.15
4 0.14
41 0.15
46 0.45
5 0.28
6 0.14
7 0.14
8 -0.14
9 -0.28

> <PUBCHEM_EFFECTIVE_ROTOR_COUNT>
4.8

> <PUBCHEM_PHARMACOPHORE_FEATURES>
8
1 1 acceptor
1 2 donor
1 23 hydrophobe
3 5 11 12 hydrophobe
4 19 20 21 22 hydrophobe
6 1 3 4 5 8 10 rings
6 3 4 6 7 9 13 rings
6 8 10 14 15 17 18 rings

> <PUBCHEM_HEAVY_ATOM_COUNT>
23

> <PUBCHEM_ATOM_DEF_STEREO_COUNT>
2

> <PUBCHEM_ATOM_UDEF_STEREO_COUNT>
0

> <PUBCHEM_BOND_DEF_STEREO_COUNT>
0

> <PUBCHEM_BOND_UDEF_STEREO_COUNT>
0

> <PUBCHEM_ISOTOPIC_ATOM_COUNT>
0

> <PUBCHEM_COMPONENT_COUNT>
1

> <PUBCHEM_CACTVS_TAUTO_COUNT>
9

> <PUBCHEM_CONFORMER_ID>
0009BC4A00000001

> <PUBCHEM_MMFF94_ENERGY>
58.9645

> <PUBCHEM_FEATURE_SELFOVERLAP>
40.641

> <PUBCHEM_SHAPE_FINGERPRINT>
10 15 18272079540432314064
10319926 262 18268414760544492882
10411042 1 18193839473683776239
10967382 1 18049730912715454341
11315181 36 17676491674782031764
12107183 9 17540807301281391546
12166972 35 17604430815946603852
12236239 1 17603586331393331222
12390115 104 18198917924407721416
12403260 363 18333455356698436524
12596602 18 17241049907264638200
12838862 33 18336817612159666333
13140716 1 18191034610134585898
13402501 40 18202560709599371208
13403585 85 18341891900975808088
13631057 29 18412542119866438567
13862211 1 18335140946346317039
13914758 101 16515674512255783110
14251764 18 18113337536176358574
14787075 74 18341896332875726764
15183329 4 9079121051162494068
16087824 20 18337954482035767613
16945 1 18336824183375096725
17349148 13 17894919524599481494
17980427 23 17096103393386839628
18336668 15 18113901593250544149
19489759 90 18408886226840589010
20510252 161 18342462487043426241
21236236 1 18411699864000162758
21267235 1 18337683004983052255
21304303 282 14491297623773086469
23402539 116 18410291432233245871
23557571 272 18273222996962948839
23559900 14 18413383246030033552
2748010 2 16536809686043299301
283562 15 18410293584296710683
335352 9 18410011062054569407
34934 24 18336264523403281023
350125 39 18411983585403641868
392239 28 18343028791266410688
474229 33 18411138039175549646
5104073 3 18193844747539164826
59554788 281 17676500418993328450
67856867 119 18261679276365992420
7226269 152 18333729143367104506
9981440 41 18187653452981346074

> <PUBCHEM_SHAPE_MULTIPOLES>
461.59
14.7
2.89
0.92
33.02
1.13
0.1
-2.65
2.66
-4.69
0.12
0.34
0.25
0.12

> <PUBCHEM_SHAPE_SELFOVERLAP>
969.304

> <PUBCHEM_SHAPE_VOLUME>
259.8

> <PUBCHEM_COORDINATE_TYPE>
2
5
10

$$$$
